
Note: No compatibility mode selected!


Circuit: ** sch_path: /home/hprcse/finfet/inverter_finfet.sch

Warning: Model issue on line 77 :
  .model bsimcmg_osdi_p bsimcmg_va ( type=0 version=107 bulkmod=1 igcmod=1 ...
unrecognized parameter (version) - ignored
unrecognized parameter (coremod) - ignored
unrecognized parameter (capmod) - ignored
unrecognized parameter (nseg) - ignored
unrecognized parameter (etaqm) - ignored

Warning: Model issue on line 151 :
  .model bsimcmg_osdi_n bsimcmg_va ( type=1 version=107 bulkmod=1 igcmod=1 ...
unrecognized parameter (version) - ignored
unrecognized parameter (coremod) - ignored
unrecognized parameter (capmod) - ignored
unrecognized parameter (nseg) - ignored
unrecognized parameter (etaqm) - ignored

Doing analysis at TEMP = 27.000000 and TNOM = 27.000000

Using SPARSE 1.3 as Direct Linear Solver

No. of Data Rows : 701
Doing analysis at TEMP = 27.000000 and TNOM = 27.000000

Using SPARSE 1.3 as Direct Linear Solver

No. of Data Rows : 701
v_th                =  3.083239e-01
max_gain            =  6.550962e+00 at=  3.120000e-01
vil                 =  3.107701e-01
voh                 =  2.923635e-01
vih                 =  3.130255e-01
vol                 =  2.775908e-01
v_th = 3.083239e-01
max_gain = 6.550962e+00
vil = 3.107701e-01
voh = 2.923635e-01
vih = 3.130255e-01
vol = 2.775908e-01
nmh = -2.06620e-02
nml = 3.317930e-02
gm_max              =  1.014795e-03 at=  3.940000e-01
Doing analysis at TEMP = 27.000000 and TNOM = 27.000000

Using SPARSE 1.3 as Direct Linear Solver

Initial Transient Solution
--------------------------

Node                                   Voltage
----                                   -------
nfet_out                                0.6994
nfet_in                                      0
vdd                                        0.7
in                                       0.545
vuniq#branch                                 0
v2#branch                         -9.79398e-07
v1#branch                          6.75251e-12


No. of Data Rows : 120
tpr                 =  2.500000e-11
tpf                 =  2.494748e-11
id_pwr              =  -1.55207e-15 from=  2.00000e-11 to=  6.00000e-11
tpr = 2.500000e-11
tpf = 2.494748e-11
tp = 2.497374e-11
id_pwr = -1.55207e-15
pwr = -1.08645e-15
power = 2.716130e-05
Doing analysis at TEMP = 27.000000 and TNOM = 27.000000

Using SPARSE 1.3 as Direct Linear Solver

Initial Transient Solution
--------------------------

Node                                   Voltage
----                                   -------
nfet_out                                0.6994
nfet_in                                      0
vdd                                        0.7
in                                       0.545
vuniq#branch                                 0
v2#branch                         -9.79398e-07
v1#branch                          6.75251e-12


No. of Data Rows : 71
tr                  =  2.100000e-11
tf                  =  2.316955e-11
t_delay = 4.416955e-11
f = 2.264003e+10
binary raw file "iterate_params/generated_spice/inverter_nf_nfin_17_pf_nfin_10.spice.raw"
Doing analysis at TEMP = 27.000000 and TNOM = 27.000000

Using SPARSE 1.3 as Direct Linear Solver
No. of Data Columns : 8  

No. of Data Rows : 701

Total analysis time (seconds) = 0.227263

Total elapsed time (seconds) = 0.234 

Total DRAM available = 15946.836 MB.
DRAM currently available = 7822.637 MB.
Maximum ngspice program size =  528.793 MB.
Current ngspice program size =   14.219 MB.

Shared ngspice pages =   11.598 MB.
Text (code) pages =    5.852 MB.
Stack = 0 bytes.
Library pages =   59.391 MB.

