
Note: No compatibility mode selected!


Circuit: ** sch_path: /home/hprcse/finfet/inverter_finfet.sch

Warning: Model issue on line 77 :
  .model bsimcmg_osdi_p bsimcmg_va ( type=0 version=107 bulkmod=1 igcmod=1 ...
unrecognized parameter (version) - ignored
unrecognized parameter (coremod) - ignored
unrecognized parameter (capmod) - ignored
unrecognized parameter (nseg) - ignored
unrecognized parameter (etaqm) - ignored

Warning: Model issue on line 151 :
  .model bsimcmg_osdi_n bsimcmg_va ( type=1 version=107 bulkmod=1 igcmod=1 ...
unrecognized parameter (version) - ignored
unrecognized parameter (coremod) - ignored
unrecognized parameter (capmod) - ignored
unrecognized parameter (nseg) - ignored
unrecognized parameter (etaqm) - ignored

Doing analysis at TEMP = 27.000000 and TNOM = 27.000000

Using SPARSE 1.3 as Direct Linear Solver

No. of Data Rows : 701
Doing analysis at TEMP = 27.000000 and TNOM = 27.000000

Using SPARSE 1.3 as Direct Linear Solver

No. of Data Rows : 701
v_th                =  3.432471e-01
max_gain            =  7.299795e+00 at=  3.480000e-01
vil                 =  3.466959e-01
voh                 =  3.182520e-01
vih                 =  3.486513e-01
vol                 =  3.039797e-01
v_th = 3.432471e-01
max_gain = 7.299795e+00
vil = 3.466959e-01
voh = 3.182520e-01
vih = 3.486513e-01
vol = 3.039797e-01
nmh = -3.03993e-02
nml = 4.271620e-02
gm_max              =  1.226787e-03 at=  4.150000e-01
Doing analysis at TEMP = 27.000000 and TNOM = 27.000000

Using SPARSE 1.3 as Direct Linear Solver

Initial Transient Solution
--------------------------

Node                                   Voltage
----                                   -------
nfet_out                              0.699799
nfet_in                                      0
vdd                                        0.7
in                                       0.545
vuniq#branch                                 0
v2#branch                         -4.61807e-07
v1#branch                          7.36192e-12


No. of Data Rows : 120
tpr                 =  2.500000e-11
tpf                 =  2.562420e-11
id_pwr              =  -1.52189e-15 from=  2.00000e-11 to=  6.00000e-11
tpr = 2.500000e-11
tpf = 2.562420e-11
tp = 2.531210e-11
id_pwr = -1.52189e-15
pwr = -1.06532e-15
power = 2.663311e-05
Doing analysis at TEMP = 27.000000 and TNOM = 27.000000

Using SPARSE 1.3 as Direct Linear Solver

Initial Transient Solution
--------------------------

Node                                   Voltage
----                                   -------
nfet_out                              0.699799
nfet_in                                      0
vdd                                        0.7
in                                       0.545
vuniq#branch                                 0
v2#branch                         -4.61807e-07
v1#branch                          7.36192e-12


No. of Data Rows : 71
tr                  =  2.100000e-11
tf                  =  2.359826e-11
t_delay = 4.459826e-11
f = 2.242240e+10
binary raw file "iterate_params/generated_spice/inverter_nf_8.0nm_pf_8.0nm.spice.raw"
Doing analysis at TEMP = 27.000000 and TNOM = 27.000000

Using SPARSE 1.3 as Direct Linear Solver
No. of Data Columns : 8  

No. of Data Rows : 701

Total analysis time (seconds) = 0.235192

Total elapsed time (seconds) = 0.242 

Total DRAM available = 15946.836 MB.
DRAM currently available = 7922.781 MB.
Maximum ngspice program size =  528.789 MB.
Current ngspice program size =   14.242 MB.

Shared ngspice pages =   11.621 MB.
Text (code) pages =    5.852 MB.
Stack = 0 bytes.
Library pages =   59.387 MB.

