
Note: No compatibility mode selected!


Circuit: ** sch_path: /home/hprcse/finfet/inverter_finfet.sch

Warning: Model issue on line 77 :
  .model bsimcmg_osdi_p bsimcmg_va ( type=0 version=107 bulkmod=1 igcmod=1 ...
unrecognized parameter (version) - ignored
unrecognized parameter (coremod) - ignored
unrecognized parameter (capmod) - ignored
unrecognized parameter (nseg) - ignored
unrecognized parameter (etaqm) - ignored

Warning: Model issue on line 151 :
  .model bsimcmg_osdi_n bsimcmg_va ( type=1 version=107 bulkmod=1 igcmod=1 ...
unrecognized parameter (version) - ignored
unrecognized parameter (coremod) - ignored
unrecognized parameter (capmod) - ignored
unrecognized parameter (nseg) - ignored
unrecognized parameter (etaqm) - ignored

Doing analysis at TEMP = 27.000000 and TNOM = 27.000000

Using SPARSE 1.3 as Direct Linear Solver

No. of Data Rows : 701
Doing analysis at TEMP = 27.000000 and TNOM = 27.000000

Using SPARSE 1.3 as Direct Linear Solver

No. of Data Rows : 701
v_th                =  3.189301e-01
max_gain            =  6.492978e+00 at=  3.230000e-01
vil                 =  3.218516e-01
voh                 =  3.000549e-01
vih                 =  3.241008e-01
vol                 =  2.854531e-01
v_th = 3.189301e-01
max_gain = 6.492978e+00
vil = 3.218516e-01
voh = 3.000549e-01
vih = 3.241008e-01
vol = 2.854531e-01
nmh = -2.40459e-02
nml = 3.639850e-02
gm_max              =  1.076623e-03 at=  4.030000e-01
Doing analysis at TEMP = 27.000000 and TNOM = 27.000000

Using SPARSE 1.3 as Direct Linear Solver

Initial Transient Solution
--------------------------

Node                                   Voltage
----                                   -------
nfet_out                              0.699487
nfet_in                                      0
vdd                                        0.7
in                                       0.545
vuniq#branch                                 0
v2#branch                         -9.22015e-07
v1#branch                          6.81366e-12


No. of Data Rows : 120
tpr                 =  2.500000e-11
tpf                 =  2.510246e-11
id_pwr              =  -1.59530e-15 from=  2.00000e-11 to=  6.00000e-11
tpr = 2.500000e-11
tpf = 2.510246e-11
tp = 2.505123e-11
id_pwr = -1.59530e-15
pwr = -1.11671e-15
power = 2.791773e-05
Doing analysis at TEMP = 27.000000 and TNOM = 27.000000

Using SPARSE 1.3 as Direct Linear Solver

Initial Transient Solution
--------------------------

Node                                   Voltage
----                                   -------
nfet_out                              0.699487
nfet_in                                      0
vdd                                        0.7
in                                       0.545
vuniq#branch                                 0
v2#branch                         -9.22015e-07
v1#branch                          6.81366e-12


No. of Data Rows : 71
tr                  =  2.100000e-11
tf                  =  2.324190e-11
t_delay = 4.424190e-11
f = 2.260301e+10
binary raw file "iterate_params/generated_spice/inverter_nf_nfin_16_pf_nfin_11.spice.raw"
Doing analysis at TEMP = 27.000000 and TNOM = 27.000000

Using SPARSE 1.3 as Direct Linear Solver
No. of Data Columns : 8  

No. of Data Rows : 701

Total analysis time (seconds) = 0.24324

Total elapsed time (seconds) = 0.249 

Total DRAM available = 15946.836 MB.
DRAM currently available = 7824.898 MB.
Maximum ngspice program size =  528.793 MB.
Current ngspice program size =   14.078 MB.

Shared ngspice pages =   11.453 MB.
Text (code) pages =    5.852 MB.
Stack = 0 bytes.
Library pages =   59.391 MB.

