
Note: No compatibility mode selected!


Circuit: ** sch_path: /home/hprcse/finfet/inverter_finfet.sch

Warning: Model issue on line 77 :
  .model bsimcmg_osdi_p bsimcmg_va ( type=0 version=107 bulkmod=1 igcmod=1 ...
unrecognized parameter (version) - ignored
unrecognized parameter (coremod) - ignored
unrecognized parameter (capmod) - ignored
unrecognized parameter (nseg) - ignored
unrecognized parameter (etaqm) - ignored

Warning: Model issue on line 151 :
  .model bsimcmg_osdi_n bsimcmg_va ( type=1 version=107 bulkmod=1 igcmod=1 ...
unrecognized parameter (version) - ignored
unrecognized parameter (coremod) - ignored
unrecognized parameter (capmod) - ignored
unrecognized parameter (nseg) - ignored
unrecognized parameter (etaqm) - ignored

Doing analysis at TEMP = 27.000000 and TNOM = 27.000000

Using SPARSE 1.3 as Direct Linear Solver

No. of Data Rows : 701
Doing analysis at TEMP = 27.000000 and TNOM = 27.000000

Using SPARSE 1.3 as Direct Linear Solver

No. of Data Rows : 701
v_th                =  3.223079e-01
max_gain            =  6.477390e+00 at=  3.270000e-01
vil                 =  3.253163e-01
voh                 =  3.029245e-01
vih                 =  3.276799e-01
vol                 =  2.876151e-01
v_th = 3.223079e-01
max_gain = 6.477390e+00
vil = 3.253163e-01
voh = 3.029245e-01
vih = 3.276799e-01
vol = 2.876151e-01
nmh = -2.47554e-02
nml = 3.770120e-02
gm_max              =  1.256892e-03 at=  4.060000e-01
Doing analysis at TEMP = 27.000000 and TNOM = 27.000000

Using SPARSE 1.3 as Direct Linear Solver

Initial Transient Solution
--------------------------

Node                                   Voltage
----                                   -------
nfet_out                              0.699511
nfet_in                                      0
vdd                                        0.7
in                                       0.545
vuniq#branch                                 0
v2#branch                         -1.03734e-06
v1#branch                          7.84564e-12


No. of Data Rows : 120
tpr                 =  2.500000e-11
tpf                 =  2.515761e-11
id_pwr              =  -1.84339e-15 from=  2.00000e-11 to=  6.00000e-11
tpr = 2.500000e-11
tpf = 2.515761e-11
tp = 2.507880e-11
id_pwr = -1.84339e-15
pwr = -1.29037e-15
power = 3.225929e-05
Doing analysis at TEMP = 27.000000 and TNOM = 27.000000

Using SPARSE 1.3 as Direct Linear Solver

Initial Transient Solution
--------------------------

Node                                   Voltage
----                                   -------
nfet_out                              0.699511
nfet_in                                      0
vdd                                        0.7
in                                       0.545
vuniq#branch                                 0
v2#branch                         -1.03734e-06
v1#branch                          7.84564e-12


No. of Data Rows : 71
tr                  =  2.100000e-11
tf                  =  2.326876e-11
t_delay = 4.426876e-11
f = 2.258929e+10
binary raw file "iterate_params/generated_spice/inverter_nf_nfin_18_pf_nfin_13.spice.raw"
Doing analysis at TEMP = 27.000000 and TNOM = 27.000000

Using SPARSE 1.3 as Direct Linear Solver
No. of Data Columns : 8  

No. of Data Rows : 701

Total analysis time (seconds) = 0.27568

Total elapsed time (seconds) = 0.282 

Total DRAM available = 15946.836 MB.
DRAM currently available = 7818.695 MB.
Maximum ngspice program size =  528.797 MB.
Current ngspice program size =   14.172 MB.

Shared ngspice pages =   11.555 MB.
Text (code) pages =    5.852 MB.
Stack = 0 bytes.
Library pages =   59.395 MB.

