
Note: No compatibility mode selected!


Circuit: ** sch_path: /home/hprcse/finfet/inverter_finfet.sch

Warning: Model issue on line 77 :
  .model bsimcmg_osdi_p bsimcmg_va ( type=0 version=107 bulkmod=1 igcmod=1 ...
unrecognized parameter (version) - ignored
unrecognized parameter (coremod) - ignored
unrecognized parameter (capmod) - ignored
unrecognized parameter (nseg) - ignored
unrecognized parameter (etaqm) - ignored

Warning: Model issue on line 151 :
  .model bsimcmg_osdi_n bsimcmg_va ( type=1 version=107 bulkmod=1 igcmod=1 ...
unrecognized parameter (version) - ignored
unrecognized parameter (coremod) - ignored
unrecognized parameter (capmod) - ignored
unrecognized parameter (nseg) - ignored
unrecognized parameter (etaqm) - ignored

Doing analysis at TEMP = 27.000000 and TNOM = 27.000000

Using SPARSE 1.3 as Direct Linear Solver

No. of Data Rows : 701
Doing analysis at TEMP = 27.000000 and TNOM = 27.000000

Using SPARSE 1.3 as Direct Linear Solver

No. of Data Rows : 701
v_th                =  3.492514e-01
max_gain            =  6.426781e+00 at=  3.550000e-01
vil                 =  3.534180e-01
voh                 =  3.226828e-01
vih                 =  3.557693e-01
vol                 =  3.075730e-01
v_th = 3.492514e-01
max_gain = 6.426781e+00
vil = 3.534180e-01
voh = 3.226828e-01
vih = 3.557693e-01
vol = 3.075730e-01
nmh = -3.30865e-02
nml = 4.584500e-02
gm_max              =  1.384080e-03 at=  4.290000e-01
Doing analysis at TEMP = 27.000000 and TNOM = 27.000000

Using SPARSE 1.3 as Direct Linear Solver

Initial Transient Solution
--------------------------

Node                                   Voltage
----                                   -------
nfet_out                              0.699669
nfet_in                                      0
vdd                                        0.7
in                                       0.545
vuniq#branch                                 0
v2#branch                         -8.64842e-07
v1#branch                          8.02689e-12


No. of Data Rows : 120
tpr                 =  2.500000e-11
tpf                 =  2.568325e-11
id_pwr              =  -1.87279e-15 from=  2.00000e-11 to=  6.00000e-11
tpr = 2.500000e-11
tpf = 2.568325e-11
tp = 2.534162e-11
id_pwr = -1.87279e-15
pwr = -1.31095e-15
power = 3.277379e-05
Doing analysis at TEMP = 27.000000 and TNOM = 27.000000

Using SPARSE 1.3 as Direct Linear Solver

Initial Transient Solution
--------------------------

Node                                   Voltage
----                                   -------
nfet_out                              0.699669
nfet_in                                      0
vdd                                        0.7
in                                       0.545
vuniq#branch                                 0
v2#branch                         -8.64842e-07
v1#branch                          8.02689e-12


No. of Data Rows : 71
tr                  =  2.100000e-11
tf                  =  2.358499e-11
t_delay = 4.458499e-11
f = 2.242907e+10
binary raw file "iterate_params/generated_spice/inverter_nf_nfin_15_pf_nfin_16.spice.raw"
Doing analysis at TEMP = 27.000000 and TNOM = 27.000000

Using SPARSE 1.3 as Direct Linear Solver
No. of Data Columns : 8  

No. of Data Rows : 701

Total analysis time (seconds) = 0.227406

Total elapsed time (seconds) = 0.234 

Total DRAM available = 15946.836 MB.
DRAM currently available = 7828.645 MB.
Maximum ngspice program size =  528.797 MB.
Current ngspice program size =   14.340 MB.

Shared ngspice pages =   11.715 MB.
Text (code) pages =    5.852 MB.
Stack = 0 bytes.
Library pages =   59.395 MB.

