
Note: No compatibility mode selected!


Circuit: ** sch_path: /home/hprcse/finfet/inverter_finfet.sch

Warning: Model issue on line 77 :
  .model bsimcmg_osdi_p bsimcmg_va ( type=0 version=107 bulkmod=1 igcmod=1 ...
unrecognized parameter (version) - ignored
unrecognized parameter (coremod) - ignored
unrecognized parameter (capmod) - ignored
unrecognized parameter (nseg) - ignored
unrecognized parameter (etaqm) - ignored

Warning: Model issue on line 151 :
  .model bsimcmg_osdi_n bsimcmg_va ( type=1 version=107 bulkmod=1 igcmod=1 ...
unrecognized parameter (version) - ignored
unrecognized parameter (coremod) - ignored
unrecognized parameter (capmod) - ignored
unrecognized parameter (nseg) - ignored
unrecognized parameter (etaqm) - ignored

Doing analysis at TEMP = 27.000000 and TNOM = 27.000000

Using SPARSE 1.3 as Direct Linear Solver

No. of Data Rows : 701
Doing analysis at TEMP = 27.000000 and TNOM = 27.000000

Using SPARSE 1.3 as Direct Linear Solver

No. of Data Rows : 701
v_th                =  3.366323e-01
max_gain            =  6.436624e+00 at=  3.410000e-01
vil                 =  3.402584e-01
voh                 =  3.134486e-01
vih                 =  3.426291e-01
vol                 =  2.981905e-01
v_th = 3.366323e-01
max_gain = 6.436624e+00
vil = 3.402584e-01
voh = 3.134486e-01
vih = 3.426291e-01
vol = 2.981905e-01
nmh = -2.91805e-02
nml = 4.206790e-02
gm_max              =  1.462704e-03 at=  4.180000e-01
Doing analysis at TEMP = 27.000000 and TNOM = 27.000000

Using SPARSE 1.3 as Direct Linear Solver

Initial Transient Solution
--------------------------

Node                                   Voltage
----                                   -------
nfet_out                              0.699603
nfet_in                                      0
vdd                                        0.7
in                                       0.545
vuniq#branch                                 0
v2#branch                         -1.03761e-06
v1#branch                          8.71043e-12


No. of Data Rows : 120
tpr                 =  2.500000e-11
tpf                 =  2.543527e-11
id_pwr              =  -2.05415e-15 from=  2.00000e-11 to=  6.00000e-11
tpr = 2.500000e-11
tpf = 2.543527e-11
tp = 2.521763e-11
id_pwr = -2.05415e-15
pwr = -1.43791e-15
power = 3.594763e-05
Doing analysis at TEMP = 27.000000 and TNOM = 27.000000

Using SPARSE 1.3 as Direct Linear Solver

Initial Transient Solution
--------------------------

Node                                   Voltage
----                                   -------
nfet_out                              0.699603
nfet_in                                      0
vdd                                        0.7
in                                       0.545
vuniq#branch                                 0
v2#branch                         -1.03761e-06
v1#branch                          8.71043e-12


No. of Data Rows : 71
tr                  =  2.100000e-11
tf                  =  2.340999e-11
t_delay = 4.440999e-11
f = 2.251746e+10
binary raw file "iterate_params/generated_spice/inverter_nf_nfin_18_pf_nfin_16.spice.raw"
Doing analysis at TEMP = 27.000000 and TNOM = 27.000000

Using SPARSE 1.3 as Direct Linear Solver
No. of Data Columns : 8  

No. of Data Rows : 701

Total analysis time (seconds) = 0.241959

Total elapsed time (seconds) = 0.248 

Total DRAM available = 15946.836 MB.
DRAM currently available = 7816.844 MB.
Maximum ngspice program size =  528.797 MB.
Current ngspice program size =   14.168 MB.

Shared ngspice pages =   11.555 MB.
Text (code) pages =    5.852 MB.
Stack = 0 bytes.
Library pages =   59.395 MB.

