
Note: No compatibility mode selected!


Circuit: ** sch_path: /home/hprcse/finfet/inverter_finfet.sch

Warning: Model issue on line 80 :
  .model bsimcmg_osdi_p bsimcmg_va ( type=0 version=107 bulkmod=1 igcmod=1 ...
unrecognized parameter (version) - ignored
unrecognized parameter (coremod) - ignored
unrecognized parameter (capmod) - ignored
unrecognized parameter (nseg) - ignored
unrecognized parameter (etaqm) - ignored

Warning: Model issue on line 154 :
  .model bsimcmg_osdi_n bsimcmg_va ( type=1 version=107 bulkmod=1 igcmod=1 ...
unrecognized parameter (version) - ignored
unrecognized parameter (coremod) - ignored
unrecognized parameter (capmod) - ignored
unrecognized parameter (nseg) - ignored
unrecognized parameter (etaqm) - ignored

Doing analysis at TEMP = 27.000000 and TNOM = 27.000000

Using SPARSE 1.3 as Direct Linear Solver
 Reference value :  6.66000e-01
No. of Data Rows : 701
Doing analysis at TEMP = 27.000000 and TNOM = 27.000000

Using SPARSE 1.3 as Direct Linear Solver

No. of Data Rows : 701

Warning: command 'plot' is not available during batch simulation, ignored!
    You may use Gnuplot instead.

v_th                =  3.447862e-01
max_gain            =  6.428448e+00 at=  3.500000e-01
vil                 =  3.488156e-01
voh                 =  3.190767e-01
vih                 =  3.510961e-01

Warning: command 'plot' is not available during batch simulation, ignored!
    You may use Gnuplot instead.


Warning: command 'plot' is not available during batch simulation, ignored!
    You may use Gnuplot instead.


Warning: command 'plot' is not available during batch simulation, ignored!
    You may use Gnuplot instead.

vol                 =  3.044187e-01
v_th = 3.447862e-01
max_gain = 6.428448e+00
vil = 3.488156e-01
voh = 3.190767e-01
vih = 3.510961e-01
vol = 3.044187e-01
nmh = -3.20194e-02
nml = 4.439690e-02
gm_max              =  1.235805e-03 at=  4.250000e-01
Doing analysis at TEMP = 27.000000 and TNOM = 27.000000

Using SPARSE 1.3 as Direct Linear Solver

Initial Transient Solution
--------------------------

Node                                   Voltage
----                                   -------
nfet_out                              0.699647
nfet_in                                      0
vdd                                        0.7
in                                       0.545
vuniq#branch                                 0
v2#branch                         -8.07135e-07
v1#branch                          7.22294e-12

 Reference value :  1.32800e-11
No. of Data Rows : 120
tpr                 =  2.500000e-11
tpf                 =  2.560432e-11
id_pwr              =  -1.69924e-15 from=  2.00000e-11 to=  6.00000e-11
tpr = 2.500000e-11
tpf = 2.560432e-11
tp = 2.530216e-11
id_pwr = -1.69924e-15
pwr = -1.18947e-15
power = 2.973670e-05
Doing analysis at TEMP = 27.000000 and TNOM = 27.000000

Using SPARSE 1.3 as Direct Linear Solver

Initial Transient Solution
--------------------------

Node                                   Voltage
----                                   -------
nfet_out                              0.699647
nfet_in                                      0
vdd                                        0.7
in                                       0.545
vuniq#branch                                 0
v2#branch                         -8.07135e-07
v1#branch                          7.22294e-12


No. of Data Rows : 71
tr                  =  2.100000e-11
tf                  =  2.351715e-11
t_delay = 4.451715e-11
f = 2.246325e+10
Note: Simulation executed from .control section 
