
v_th = 3.00000e-01
max_gain = 1.20000e+01
vil = ...

Initial Transient Solution
--------------------------

Node                                   Voltage
----                                   -------
nfet_out                              0.699647
nfet_in                                      0
vdd                                        0.7
in                                       0.545
vuniq#branch                                 0
v2#branch                         -8.07135e-07
v1#branch                          7.22294e-12

 Reference value :  5.03000e-11
No. of Data Rows : 120
tpr                 =  2.500000e-11
tpf                 =  2.560432e-11
id_pwr              =  -1.69924e-15 from=  2.00000e-11 to=  6.00000e-11
tpr = 2.500000e-11
tpf = 2.560432e-11
tp = 2.530216e-11
id_pwr = -1.69924e-15
pwr = -1.18947e-15
power = 2.973670e-05
Doing analysis at TEMP = 27.000000 and TNOM = 27.000000

Using SPARSE 1.3 as Direct Linear Solver

Initial Transient Solution
--------------------------

Node                                   Voltage
----                                   -------
nfet_out                              0.699647
nfet_in                                      0
vdd                                        0.7
in                                       0.545
vuniq#branch                                 0
v2#branch                         -8.07135e-07
v1#branch                          7.22294e-12


No. of Data Rows : 71
tr                  =  2.100000e-11
tf                  =  2.351715e-11
t_delay = 4.451715e-11
f = 2.246325e+10
Note: Simulation executed from .control section 
